*SPEF "ieee 1481-1999"
*DESIGN "user_proj_timer"
*DATE "11:11:11 Fri 11 11, 1111"
*VENDOR "OpenRCX"
*PROGRAM "Parallel Extraction"
*VERSION "1.0"
*DESIGN_FLOW "NAME_SCOPE LOCAL" "PIN_CAP NONE"
*DIVIDER /
*DELIMITER :
*BUS_DELIMITER []
*T_UNIT 1 NS
*C_UNIT 1 PF
*R_UNIT 1 OHM
*L_UNIT 1 HENRY

*NAME_MAP
*1 io_in[0]
*2 io_in[10]
*3 io_in[1]
*4 io_in[2]
*5 io_in[3]
*6 io_in[4]
*7 io_in[5]
*8 io_in[6]
*9 io_in[7]
*10 io_in[8]
*11 io_in[9]
*12 io_oeb[0]
*13 io_oeb[10]
*14 io_oeb[1]
*15 io_oeb[2]
*16 io_oeb[3]
*17 io_oeb[4]
*18 io_oeb[5]
*19 io_oeb[6]
*20 io_oeb[7]
*21 io_oeb[8]
*22 io_oeb[9]
*23 io_out[0]
*24 io_out[10]
*25 io_out[1]
*26 io_out[2]
*27 io_out[3]
*28 io_out[4]
*29 io_out[5]
*30 io_out[6]
*31 io_out[7]
*32 io_out[8]
*33 io_out[9]
*36 wb_clk_i
*37 wb_rst_i
*38 _000_
*39 _001_
*40 _002_
*41 _003_
*42 _004_
*43 _005_
*44 _006_
*45 _007_
*46 _008_
*47 _009_
*48 _010_
*49 _011_
*50 _012_
*51 _013_
*52 _014_
*53 _015_
*54 _016_
*55 _017_
*56 _018_
*57 _019_
*58 _020_
*59 _021_
*60 _022_
*61 _023_
*62 _024_
*63 _025_
*64 _026_
*65 _027_
*66 _028_
*67 _029_
*68 _030_
*69 _031_
*70 _032_
*71 _033_
*72 _034_
*73 _035_
*74 _036_
*75 _037_
*76 _038_
*77 _039_
*78 _040_
*79 _041_
*80 _042_
*81 _043_
*82 _044_
*83 _045_
*84 _046_
*85 _047_
*86 _048_
*87 _049_
*88 _050_
*89 _051_
*90 _052_
*91 _053_
*92 _054_
*93 _055_
*94 _056_
*95 _057_
*96 _058_
*97 _059_
*98 _060_
*99 _061_
*100 _062_
*101 _063_
*102 _064_
*103 _065_
*104 _066_
*105 _067_
*106 _068_
*107 _069_
*108 _070_
*109 _071_
*110 _072_
*111 _073_
*112 _074_
*113 _075_
*114 _076_
*115 _077_
*116 _078_
*117 _079_
*118 _080_
*119 _081_
*120 _082_
*121 _083_
*122 _084_
*123 _085_
*124 _086_
*125 _087_
*126 _088_
*127 _089_
*128 _090_
*129 _091_
*130 _092_
*131 _093_
*132 _094_
*133 _095_
*134 _096_
*135 _097_
*136 _098_
*137 _099_
*138 _100_
*139 _101_
*140 _102_
*141 _103_
*142 _104_
*143 _105_
*144 _106_
*145 _107_
*146 _108_
*147 _109_
*148 _110_
*149 _111_
*150 _112_
*151 _113_
*152 _114_
*153 _115_
*154 _116_
*155 _117_
*156 _118_
*157 _119_
*158 _120_
*159 _121_
*160 _122_
*161 _123_
*162 _124_
*163 _125_
*164 _126_
*165 _127_
*166 _128_
*167 _129_
*168 _130_
*169 _131_
*170 _132_
*171 _133_
*172 _134_
*173 _135_
*174 _136_
*175 _137_
*176 _138_
*177 _139_
*178 _140_
*179 _141_
*180 _142_
*181 _143_
*182 _144_
*183 _145_
*184 _146_
*185 _147_
*186 _148_
*187 _149_
*188 _150_
*189 _151_
*190 _152_
*191 _153_
*192 _154_
*193 _155_
*194 _156_
*195 _157_
*196 _158_
*197 _159_
*198 _160_
*199 _161_
*200 _162_
*201 _163_
*202 _164_
*203 _165_
*204 _166_
*205 _167_
*206 _168_
*207 _169_
*208 _170_
*209 _171_
*210 _172_
*211 _173_
*212 _174_
*213 _175_
*214 _176_
*215 _177_
*216 _178_
*217 _179_
*218 _180_
*219 _181_
*220 _182_
*221 _183_
*222 _184_
*223 _185_
*224 _186_
*225 _187_
*226 _188_
*227 _189_
*228 _190_
*229 _191_
*230 _192_
*231 _193_
*232 _194_
*233 _195_
*234 _196_
*235 _197_
*236 _198_
*237 _199_
*238 _200_
*239 _201_
*240 _202_
*241 _203_
*242 _204_
*243 _205_
*244 _206_
*245 _207_
*246 _208_
*247 _209_
*248 _210_
*249 _211_
*250 _212_
*251 _213_
*252 _214_
*253 _215_
*254 _216_
*255 _217_
*256 _218_
*257 _219_
*258 _220_
*259 _221_
*260 _222_
*261 _223_
*262 _224_
*263 _225_
*264 _226_
*265 _227_
*266 _228_
*267 _229_
*268 _230_
*269 _231_
*270 _232_
*271 _233_
*272 _234_
*273 _235_
*274 _236_
*275 _237_
*276 _238_
*277 _239_
*278 _240_
*279 _241_
*280 _242_
*281 _243_
*282 _244_
*283 _245_
*284 _246_
*285 _247_
*286 _248_
*287 _249_
*288 _250_
*289 _251_
*290 _252_
*291 _253_
*292 _254_
*293 _255_
*294 _256_
*295 _257_
*296 _258_
*297 _259_
*298 _260_
*299 _261_
*300 _262_
*301 _263_
*302 _264_
*303 _265_
*304 _266_
*305 _267_
*306 _268_
*307 _269_
*308 _270_
*309 _271_
*310 _272_
*311 _273_
*312 _274_
*313 _275_
*314 _276_
*315 _277_
*316 _278_
*317 _279_
*318 _280_
*319 _281_
*320 _282_
*321 _283_
*322 _284_
*323 _285_
*324 _286_
*325 _287_
*326 _288_
*327 _289_
*328 _290_
*329 _291_
*330 _292_
*331 _293_
*332 _294_
*333 _295_
*334 _296_
*335 _297_
*336 _298_
*337 _299_
*338 _300_
*339 _301_
*340 _302_
*341 _303_
*342 _304_
*343 _305_
*344 _306_
*345 _307_
*346 _308_
*347 _309_
*348 _310_
*349 _311_
*350 _312_
*351 _313_
*352 _314_
*353 _315_
*354 _316_
*355 _317_
*356 _318_
*357 _319_
*358 _320_
*359 _321_
*360 _322_
*361 _323_
*362 _324_
*363 _325_
*364 _326_
*365 _327_
*366 _328_
*367 _329_
*368 _330_
*369 clknet_0_wb_clk_i
*370 clknet_4_0_0_wb_clk_i
*371 clknet_4_10_0_wb_clk_i
*372 clknet_4_11_0_wb_clk_i
*373 clknet_4_12_0_wb_clk_i
*374 clknet_4_13_0_wb_clk_i
*375 clknet_4_14_0_wb_clk_i
*376 clknet_4_15_0_wb_clk_i
*377 clknet_4_1_0_wb_clk_i
*378 clknet_4_2_0_wb_clk_i
*379 clknet_4_3_0_wb_clk_i
*380 clknet_4_4_0_wb_clk_i
*381 clknet_4_5_0_wb_clk_i
*382 clknet_4_6_0_wb_clk_i
*383 clknet_4_7_0_wb_clk_i
*384 clknet_4_8_0_wb_clk_i
*385 clknet_4_9_0_wb_clk_i
*386 net1
*387 net10
*388 net100
*389 net101
*390 net102
*391 net103
*392 net104
*393 net105
*394 net106
*395 net107
*396 net108
*397 net109
*398 net11
*399 net110
*400 net111
*401 net112
*402 net113
*403 net114
*404 net115
*405 net116
*406 net117
*407 net118
*408 net119
*409 net12
*410 net120
*411 net121
*412 net122
*413 net123
*414 net124
*415 net125
*416 net126
*417 net127
*418 net128
*419 net129
*420 net13
*421 net130
*422 net131
*423 net132
*424 net133
*425 net134
*426 net135
*427 net136
*428 net137
*429 net138
*430 net139
*431 net14
*432 net140
*433 net141
*434 net142
*435 net143
*436 net144
*437 net145
*438 net146
*439 net147
*440 net148
*441 net149
*442 net15
*443 net150
*444 net151
*445 net152
*446 net153
*447 net154
*448 net155
*449 net156
*450 net157
*451 net158
*452 net159
*453 net16
*454 net160
*455 net161
*456 net162
*457 net163
*458 net164
*459 net165
*460 net166
*461 net167
*462 net168
*463 net169
*464 net17
*465 net170
*466 net171
*467 net172
*468 net173
*469 net174
*470 net175
*471 net176
*472 net177
*473 net178
*474 net179
*475 net18
*476 net180
*477 net181
*478 net182
*479 net183
*480 net184
*481 net185
*482 net186
*483 net187
*484 net188
*485 net189
*486 net19
*487 net190
*488 net191
*489 net192
*490 net193
*491 net194
*492 net195
*493 net196
*494 net197
*495 net198
*496 net199
*497 net2
*498 net20
*499 net200
*500 net201
*501 net202
*502 net203
*503 net204
*504 net205
*505 net206
*506 net207
*507 net208
*508 net209
*509 net21
*510 net210
*511 net211
*512 net212
*513 net213
*514 net214
*515 net215
*516 net216
*517 net217
*518 net218
*519 net219
*520 net22
*521 net220
*522 net221
*523 net222
*524 net223
*525 net23
*526 net24
*527 net25
*528 net26
*529 net27
*530 net28
*531 net29
*532 net3
*533 net30
*534 net31
*535 net32
*536 net33
*537 net34
*538 net35
*539 net36
*540 net37
*541 net38
*542 net39
*543 net4
*544 net40
*545 net41
*546 net42
*547 net43
*548 net44
*549 net45
*550 net46
*551 net47
*552 net48
*553 net49
*554 net5
*555 net50
*556 net51
*557 net52
*558 net53
*559 net54
*560 net55
*561 net56
*562 net57
*563 net58
*564 net59
*565 net6
*566 net60
*567 net61
*568 net62
*569 net63
*570 net64
*571 net65
*572 net66
*573 net67
*574 net68
*575 net69
*576 net7
*577 net70
*578 net71
*579 net72
*580 net73
*581 net74
*582 net75
*583 net76
*584 net77
*585 net78
*586 net79
*587 net8
*588 net80
*589 net81
*590 net82
*591 net83
*592 net84
*593 net85
*594 net86
*595 net87
*596 net88
*597 net89
*598 net9
*599 net90
*600 net91
*601 net92
*602 net93
*603 net94
*604 net95
*605 net96
*606 net97
*607 net98
*608 net99
*609 timer\.dig_cnt\[0\]
*610 timer\.dig_cnt\[1\]
*611 timer\.min_ones\[0\]
*612 timer\.min_ones\[1\]
*613 timer\.min_ones\[2\]
*614 timer\.min_ones\[3\]
*615 timer\.min_tens\[0\]
*616 timer\.min_tens\[1\]
*617 timer\.min_tens\[2\]
*618 timer\.min_tens\[3\]
*619 timer\.scan
*620 timer\.scan_div\[0\]
*621 timer\.scan_div\[10\]
*622 timer\.scan_div\[11\]
*623 timer\.scan_div\[12\]
*624 timer\.scan_div\[13\]
*625 timer\.scan_div\[14\]
*626 timer\.scan_div\[15\]
*627 timer\.scan_div\[16\]
*628 timer\.scan_div\[17\]
*629 timer\.scan_div\[18\]
*630 timer\.scan_div\[19\]
*631 timer\.scan_div\[1\]
*632 timer\.scan_div\[20\]
*633 timer\.scan_div\[21\]
*634 timer\.scan_div\[22\]
*635 timer\.scan_div\[23\]
*636 timer\.scan_div\[24\]
*637 timer\.scan_div\[25\]
*638 timer\.scan_div\[26\]
*639 timer\.scan_div\[27\]
*640 timer\.scan_div\[28\]
*641 timer\.scan_div\[29\]
*642 timer\.scan_div\[2\]
*643 timer\.scan_div\[30\]
*644 timer\.scan_div\[31\]
*645 timer\.scan_div\[3\]
*646 timer\.scan_div\[4\]
*647 timer\.scan_div\[5\]
*648 timer\.scan_div\[6\]
*649 timer\.scan_div\[7\]
*650 timer\.scan_div\[8\]
*651 timer\.scan_div\[9\]
*652 timer\.sec
*653 timer\.sec_div\[0\]
*654 timer\.sec_div\[10\]
*655 timer\.sec_div\[11\]
*656 timer\.sec_div\[12\]
*657 timer\.sec_div\[13\]
*658 timer\.sec_div\[14\]
*659 timer\.sec_div\[15\]
*660 timer\.sec_div\[16\]
*661 timer\.sec_div\[17\]
*662 timer\.sec_div\[18\]
*663 timer\.sec_div\[19\]
*664 timer\.sec_div\[1\]
*665 timer\.sec_div\[20\]
*666 timer\.sec_div\[21\]
*667 timer\.sec_div\[22\]
*668 timer\.sec_div\[23\]
*669 timer\.sec_div\[24\]
*670 timer\.sec_div\[25\]
*671 timer\.sec_div\[26\]
*672 timer\.sec_div\[27\]
*673 timer\.sec_div\[28\]
*674 timer\.sec_div\[29\]
*675 timer\.sec_div\[2\]
*676 timer\.sec_div\[30\]
*677 timer\.sec_div\[31\]
*678 timer\.sec_div\[3\]
*679 timer\.sec_div\[4\]
*680 timer\.sec_div\[5\]
*681 timer\.sec_div\[6\]
*682 timer\.sec_div\[7\]
*683 timer\.sec_div\[8\]
*684 timer\.sec_div\[9\]
*685 timer\.sec_ones\[0\]
*686 timer\.sec_ones\[1\]
*687 timer\.sec_ones\[2\]
*688 timer\.sec_ones\[3\]
*689 timer\.sec_tens\[0\]
*690 timer\.sec_tens\[1\]
*691 timer\.sec_tens\[2\]
*692 timer\.sec_tens\[3\]
*693 ANTENNA_1
*694 ANTENNA_2
*695 ANTENNA_3
*696 ANTENNA__339__A
*697 ANTENNA__340__A2
*698 ANTENNA__340__B1
*699 ANTENNA__341__A
*700 ANTENNA__341__B
*701 ANTENNA__343__B
*702 ANTENNA__567__A
*703 ANTENNA__567__B
*704 ANTENNA__568__A_N
*705 ANTENNA__568__B
*706 ANTENNA__569__A_N
*707 ANTENNA__569__B
*708 ANTENNA__570__S0
*709 ANTENNA__570__S1
*710 ANTENNA__571__S0
*711 ANTENNA__571__S1
*712 ANTENNA__574__S0
*713 ANTENNA__574__S1
*714 ANTENNA__577__S0
*715 ANTENNA__577__S1
*716 ANTENNA__590__A
*717 ANTENNA__591__A
*718 ANTENNA__592__A
*719 ANTENNA__593__A
*720 ANTENNA__594__A
*721 ANTENNA__595__A
*722 ANTENNA__596__A
*723 ANTENNA__597__A
*724 ANTENNA__598__A
*725 ANTENNA__599__A
*726 ANTENNA__600__A
*727 ANTENNA__601__A
*728 ANTENNA__602__A
*729 ANTENNA__603__A
*730 ANTENNA__604__A
*731 ANTENNA__605__A
*732 ANTENNA__606__A
*733 ANTENNA__607__A
*734 ANTENNA__608__A
*735 ANTENNA__609__A
*736 ANTENNA__610__A
*737 ANTENNA__611__A
*738 ANTENNA__612__A
*739 ANTENNA__613__A
*740 ANTENNA__614__A
*741 ANTENNA__615__A
*742 ANTENNA__616__A
*743 ANTENNA__617__A
*744 ANTENNA__618__A
*745 ANTENNA__619__A
*746 ANTENNA__620__A
*747 ANTENNA__621__A
*748 ANTENNA__622__A
*749 ANTENNA__623__A
*750 ANTENNA__624__A
*751 ANTENNA__625__A
*752 ANTENNA__626__A
*753 ANTENNA__627__A
*754 ANTENNA__628__A
*755 ANTENNA__629__A
*756 ANTENNA__630__A
*757 ANTENNA__631__A
*758 ANTENNA__632__A
*759 ANTENNA__633__A
*760 ANTENNA__634__A
*761 ANTENNA__635__A
*762 ANTENNA__636__A
*763 ANTENNA__637__A
*764 ANTENNA__638__A
*765 ANTENNA__639__A
*766 ANTENNA__640__A
*767 ANTENNA__641__A
*768 ANTENNA__642__A
*769 ANTENNA__643__A
*770 ANTENNA__644__A
*771 ANTENNA__645__A
*772 ANTENNA__646__A
*773 ANTENNA__647__A
*774 ANTENNA__648__A
*775 ANTENNA__649__A
*776 ANTENNA__650__A
*777 ANTENNA__651__A
*778 ANTENNA__652__A
*779 ANTENNA__653__A
*780 ANTENNA__654__A
*781 ANTENNA__655__A
*782 ANTENNA__656__A
*783 ANTENNA__657__A
*784 ANTENNA__658__A
*785 ANTENNA__659__A
*786 ANTENNA__660__A
*787 ANTENNA__661__A
*788 ANTENNA__662__A
*789 ANTENNA__663__A
*790 ANTENNA__664__A
*791 ANTENNA__665__A
*792 ANTENNA__666__A
*793 ANTENNA__667__A
*794 ANTENNA__668__A
*795 ANTENNA__669__A
*796 ANTENNA__670__A
*797 ANTENNA__671__A
*798 ANTENNA__672__A
*799 ANTENNA__673__CLK
*800 ANTENNA__674__CLK
*801 ANTENNA__675__CLK
*802 ANTENNA__676__CLK
*803 ANTENNA__677__CLK
*804 ANTENNA__678__CLK
*805 ANTENNA__679__CLK
*806 ANTENNA__680__CLK
*807 ANTENNA__681__CLK
*808 ANTENNA__682__CLK
*809 ANTENNA__683__CLK
*810 ANTENNA__684__CLK
*811 ANTENNA__685__CLK
*812 ANTENNA__686__CLK
*813 ANTENNA__687__CLK
*814 ANTENNA__688__CLK
*815 ANTENNA__689__CLK
*816 ANTENNA__690__CLK
*817 ANTENNA__691__CLK
*818 ANTENNA__692__CLK
*819 ANTENNA__693__CLK
*820 ANTENNA__694__CLK
*821 ANTENNA__695__CLK
*822 ANTENNA__696__CLK
*823 ANTENNA__697__CLK
*824 ANTENNA__698__CLK
*825 ANTENNA__699__CLK
*826 ANTENNA__700__CLK
*827 ANTENNA__701__CLK
*828 ANTENNA__702__CLK
*829 ANTENNA__703__CLK
*830 ANTENNA__704__CLK
*831 ANTENNA__705__CLK
*832 ANTENNA__706__CLK
*833 ANTENNA__707__CLK
*834 ANTENNA__708__CLK
*835 ANTENNA__709__CLK
*836 ANTENNA__710__CLK
*837 ANTENNA__711__CLK
*838 ANTENNA__712__CLK
*839 ANTENNA__713__CLK
*840 ANTENNA__714__CLK
*841 ANTENNA__715__CLK
*842 ANTENNA__716__CLK
*843 ANTENNA__717__CLK
*844 ANTENNA__718__CLK
*845 ANTENNA__719__CLK
*846 ANTENNA__720__CLK
*847 ANTENNA__721__CLK
*848 ANTENNA__722__CLK
*849 ANTENNA__723__CLK
*850 ANTENNA__724__CLK
*851 ANTENNA__725__CLK
*852 ANTENNA__726__CLK
*853 ANTENNA__727__CLK
*854 ANTENNA__728__CLK
*855 ANTENNA__729__CLK
*856 ANTENNA__730__CLK
*857 ANTENNA__731__CLK
*858 ANTENNA__732__CLK
*859 ANTENNA__733__CLK
*860 ANTENNA__734__CLK
*861 ANTENNA__735__CLK
*862 ANTENNA__736__CLK
*863 ANTENNA__737__CLK
*864 ANTENNA__738__CLK
*865 ANTENNA__739__CLK
*866 ANTENNA__740__CLK
*867 ANTENNA__741__CLK
*868 ANTENNA__742__CLK
*869 ANTENNA__743__CLK
*870 ANTENNA__744__CLK
*871 ANTENNA__745__CLK
*872 ANTENNA__746__CLK
*873 ANTENNA__747__CLK
*874 ANTENNA__748__CLK
*875 ANTENNA__749__CLK
*876 ANTENNA__750__CLK
*877 ANTENNA__751__CLK
*878 ANTENNA__752__CLK
*879 ANTENNA__753__CLK
*880 ANTENNA__754__CLK
*881 ANTENNA__755__CLK
*882 ANTENNA__756__CLK
*883 ANTENNA__757__A
*884 ANTENNA__757__A_50
*885 ANTENNA__758__A
*886 ANTENNA__758__A_49
*887 ANTENNA__759__A
*888 ANTENNA__759__A_48
*889 ANTENNA__760__A
*890 ANTENNA__760__A_47
*891 ANTENNA__761__A
*892 ANTENNA__761__A_46
*893 ANTENNA__762__A
*894 ANTENNA__762__A_45
*895 ANTENNA__763__A
*896 ANTENNA__763__A_44
*897 ANTENNA__764__A
*898 ANTENNA__764__A_43
*899 ANTENNA__765__A
*900 ANTENNA__765__A_42
*901 ANTENNA__766__A
*902 ANTENNA__766__A_41
*903 ANTENNA__767__A
*904 ANTENNA__767__A_40
*905 FILLER_0_0_109
*906 FILLER_0_0_113
*907 FILLER_0_0_125
*908 FILLER_0_0_137
*909 FILLER_0_0_141
*910 FILLER_0_0_15
*911 FILLER_0_0_153
*912 FILLER_0_0_165
*913 FILLER_0_0_169
*914 FILLER_0_0_181
*915 FILLER_0_0_193
*916 FILLER_0_0_197
*917 FILLER_0_0_209
*918 FILLER_0_0_221
*919 FILLER_0_0_225
*920 FILLER_0_0_237
*921 FILLER_0_0_249
*922 FILLER_0_0_253
*923 FILLER_0_0_265
*924 FILLER_0_0_27
*925 FILLER_0_0_277
*926 FILLER_0_0_281
*927 FILLER_0_0_29
*928 FILLER_0_0_293
*929 FILLER_0_0_3
*930 FILLER_0_0_305
*931 FILLER_0_0_309
*932 FILLER_0_0_313
*933 FILLER_0_0_325
*934 FILLER_0_0_329
*935 FILLER_0_0_335
*936 FILLER_0_0_337
*937 FILLER_0_0_349
*938 FILLER_0_0_361
*939 FILLER_0_0_365
*940 FILLER_0_0_377
*941 FILLER_0_0_389
*942 FILLER_0_0_393
*943 FILLER_0_0_405
*944 FILLER_0_0_41
*945 FILLER_0_0_53
*946 FILLER_0_0_57
*947 FILLER_0_0_69
*948 FILLER_0_0_81
*949 FILLER_0_0_85
*950 FILLER_0_0_97
*951 FILLER_0_1000_109
*952 FILLER_0_1000_121
*953 FILLER_0_1000_133
*954 FILLER_0_1000_139
*955 FILLER_0_1000_141
*956 FILLER_0_1000_15
*957 FILLER_0_1000_153
*958 FILLER_0_1000_165
*959 FILLER_0_1000_177
*960 FILLER_0_1000_189
*961 FILLER_0_1000_195
*962 FILLER_0_1000_197
*963 FILLER_0_1000_209
*964 FILLER_0_1000_221
*965 FILLER_0_1000_233
*966 FILLER_0_1000_245
*967 FILLER_0_1000_251
*968 FILLER_0_1000_253
*969 FILLER_0_1000_265
*970 FILLER_0_1000_27
*971 FILLER_0_1000_277
*972 FILLER_0_1000_289
*973 FILLER_0_1000_29
*974 FILLER_0_1000_3
*975 FILLER_0_1000_301
*976 FILLER_0_1000_307
*977 FILLER_0_1000_309
*978 FILLER_0_1000_321
*979 FILLER_0_1000_333
*980 FILLER_0_1000_345
*981 FILLER_0_1000_357
*982 FILLER_0_1000_363
*983 FILLER_0_1000_365
*984 FILLER_0_1000_377
*985 FILLER_0_1000_389
*986 FILLER_0_1000_401
*987 FILLER_0_1000_41
*988 FILLER_0_1000_53
*989 FILLER_0_1000_65
*990 FILLER_0_1000_77
*991 FILLER_0_1000_83
*992 FILLER_0_1000_85
*993 FILLER_0_1000_97
*994 FILLER_0_1001_105
*995 FILLER_0_1001_111
*996 FILLER_0_1001_113
*997 FILLER_0_1001_125
*998 FILLER_0_1001_137
*999 FILLER_0_1001_149
*1000 FILLER_0_1001_15
*1001 FILLER_0_1001_161
*1002 FILLER_0_1001_167
*1003 FILLER_0_1001_169
*1004 FILLER_0_1001_181
*1005 FILLER_0_1001_193
*1006 FILLER_0_1001_205
*1007 FILLER_0_1001_217
*1008 FILLER_0_1001_223
*1009 FILLER_0_1001_225
*1010 FILLER_0_1001_237
*1011 FILLER_0_1001_249
*1012 FILLER_0_1001_261
*1013 FILLER_0_1001_27
*1014 FILLER_0_1001_273
*1015 FILLER_0_1001_279
*1016 FILLER_0_1001_281
*1017 FILLER_0_1001_293
*1018 FILLER_0_1001_3
*1019 FILLER_0_1001_305
*1020 FILLER_0_1001_317
*1021 FILLER_0_1001_329
*1022 FILLER_0_1001_335
*1023 FILLER_0_1001_337
*1024 FILLER_0_1001_349
*1025 FILLER_0_1001_361
*1026 FILLER_0_1001_373
*1027 FILLER_0_1001_385
*1028 FILLER_0_1001_39
*1029 FILLER_0_1001_391
*1030 FILLER_0_1001_393
*1031 FILLER_0_1001_405
*1032 FILLER_0_1001_51
*1033 FILLER_0_1001_55
*1034 FILLER_0_1001_57
*1035 FILLER_0_1001_69
*1036 FILLER_0_1001_81
*1037 FILLER_0_1001_93
*1038 FILLER_0_1002_109
*1039 FILLER_0_1002_121
*1040 FILLER_0_1002_133
*1041 FILLER_0_1002_139
*1042 FILLER_0_1002_141
*1043 FILLER_0_1002_15
*1044 FILLER_0_1002_153
*1045 FILLER_0_1002_165
*1046 FILLER_0_1002_177
*1047 FILLER_0_1002_189
*1048 FILLER_0_1002_195
*1049 FILLER_0_1002_197
*1050 FILLER_0_1002_209
*1051 FILLER_0_1002_221
*1052 FILLER_0_1002_233
*1053 FILLER_0_1002_245
*1054 FILLER_0_1002_251
*1055 FILLER_0_1002_253
*1056 FILLER_0_1002_265
*1057 FILLER_0_1002_27
*1058 FILLER_0_1002_277
*1059 FILLER_0_1002_289
*1060 FILLER_0_1002_29
*1061 FILLER_0_1002_3
*1062 FILLER_0_1002_301
*1063 FILLER_0_1002_307
*1064 FILLER_0_1002_309
*1065 FILLER_0_1002_321
*1066 FILLER_0_1002_333
*1067 FILLER_0_1002_345
*1068 FILLER_0_1002_357
*1069 FILLER_0_1002_363
*1070 FILLER_0_1002_365
*1071 FILLER_0_1002_377
*1072 FILLER_0_1002_389
*1073 FILLER_0_1002_401
*1074 FILLER_0_1002_41
*1075 FILLER_0_1002_53
*1076 FILLER_0_1002_65
*1077 FILLER_0_1002_77
*1078 FILLER_0_1002_83
*1079 FILLER_0_1002_85
*1080 FILLER_0_1002_97
*1081 FILLER_0_1003_105
*1082 FILLER_0_1003_111
*1083 FILLER_0_1003_113
*1084 FILLER_0_1003_125
*1085 FILLER_0_1003_137
*1086 FILLER_0_1003_149
*1087 FILLER_0_1003_15
*1088 FILLER_0_1003_161
*1089 FILLER_0_1003_167
*1090 FILLER_0_1003_169
*1091 FILLER_0_1003_181
*1092 FILLER_0_1003_193
*1093 FILLER_0_1003_205
*1094 FILLER_0_1003_217
*1095 FILLER_0_1003_223
*1096 FILLER_0_1003_225
*1097 FILLER_0_1003_237
*1098 FILLER_0_1003_249
*1099 FILLER_0_1003_261
*1100 FILLER_0_1003_27
*1101 FILLER_0_1003_273
*1102 FILLER_0_1003_279
*1103 FILLER_0_1003_281
*1104 FILLER_0_1003_293
*1105 FILLER_0_1003_3
*1106 FILLER_0_1003_305
*1107 FILLER_0_1003_317
*1108 FILLER_0_1003_329
*1109 FILLER_0_1003_335
*1110 FILLER_0_1003_337
*1111 FILLER_0_1003_349
*1112 FILLER_0_1003_361
*1113 FILLER_0_1003_373
*1114 FILLER_0_1003_385
*1115 FILLER_0_1003_39
*1116 FILLER_0_1003_391
*1117 FILLER_0_1003_393
*1118 FILLER_0_1003_405
*1119 FILLER_0_1003_51
*1120 FILLER_0_1003_55
*1121 FILLER_0_1003_57
*1122 FILLER_0_1003_69
*1123 FILLER_0_1003_81
*1124 FILLER_0_1003_93
*1125 FILLER_0_1004_109
*1126 FILLER_0_1004_121
*1127 FILLER_0_1004_133
*1128 FILLER_0_1004_139
*1129 FILLER_0_1004_141
*1130 FILLER_0_1004_15
*1131 FILLER_0_1004_153
*1132 FILLER_0_1004_165
*1133 FILLER_0_1004_177
*1134 FILLER_0_1004_189
*1135 FILLER_0_1004_195
*1136 FILLER_0_1004_197
*1137 FILLER_0_1004_209
*1138 FILLER_0_1004_221
*1139 FILLER_0_1004_233
*1140 FILLER_0_1004_245
*1141 FILLER_0_1004_251
*1142 FILLER_0_1004_253
*1143 FILLER_0_1004_265
*1144 FILLER_0_1004_27
*1145 FILLER_0_1004_277
*1146 FILLER_0_1004_289
*1147 FILLER_0_1004_29
*1148 FILLER_0_1004_3
*1149 FILLER_0_1004_301
*1150 FILLER_0_1004_307
*1151 FILLER_0_1004_309
*1152 FILLER_0_1004_321
*1153 FILLER_0_1004_333
*1154 FILLER_0_1004_345
*1155 FILLER_0_1004_357
*1156 FILLER_0_1004_363
*1157 FILLER_0_1004_365
*1158 FILLER_0_1004_377
*1159 FILLER_0_1004_389
*1160 FILLER_0_1004_401
*1161 FILLER_0_1004_41
*1162 FILLER_0_1004_53
*1163 FILLER_0_1004_65
*1164 FILLER_0_1004_77
*1165 FILLER_0_1004_83
*1166 FILLER_0_1004_85
*1167 FILLER_0_1004_97
*1168 FILLER_0_1005_105
*1169 FILLER_0_1005_111
*1170 FILLER_0_1005_113
*1171 FILLER_0_1005_125
*1172 FILLER_0_1005_137
*1173 FILLER_0_1005_149
*1174 FILLER_0_1005_15
*1175 FILLER_0_1005_161
*1176 FILLER_0_1005_167
*1177 FILLER_0_1005_169
*1178 FILLER_0_1005_181
*1179 FILLER_0_1005_193
*1180 FILLER_0_1005_205
*1181 FILLER_0_1005_217
*1182 FILLER_0_1005_223
*1183 FILLER_0_1005_225
*1184 FILLER_0_1005_237
*1185 FILLER_0_1005_249
*1186 FILLER_0_1005_261
*1187 FILLER_0_1005_27
*1188 FILLER_0_1005_273
*1189 FILLER_0_1005_279
*1190 FILLER_0_1005_281
*1191 FILLER_0_1005_293
*1192 FILLER_0_1005_3
*1193 FILLER_0_1005_305
*1194 FILLER_0_1005_317
*1195 FILLER_0_1005_329
*1196 FILLER_0_1005_335
*1197 FILLER_0_1005_337
*1198 FILLER_0_1005_349
*1199 FILLER_0_1005_361
*1200 FILLER_0_1005_373
*1201 FILLER_0_1005_385
*1202 FILLER_0_1005_39
*1203 FILLER_0_1005_391
*1204 FILLER_0_1005_393
*1205 FILLER_0_1005_405
*1206 FILLER_0_1005_51
*1207 FILLER_0_1005_55
*1208 FILLER_0_1005_57
*1209 FILLER_0_1005_69
*1210 FILLER_0_1005_81
*1211 FILLER_0_1005_93
*1212 FILLER_0_1006_109
*1213 FILLER_0_1006_121
*1214 FILLER_0_1006_133
*1215 FILLER_0_1006_139
*1216 FILLER_0_1006_141
*1217 FILLER_0_1006_15
*1218 FILLER_0_1006_153
*1219 FILLER_0_1006_165
*1220 FILLER_0_1006_177
*1221 FILLER_0_1006_189
*1222 FILLER_0_1006_195
*1223 FILLER_0_1006_197
*1224 FILLER_0_1006_209
*1225 FILLER_0_1006_221
*1226 FILLER_0_1006_233
*1227 FILLER_0_1006_245
*1228 FILLER_0_1006_251
*1229 FILLER_0_1006_253
*1230 FILLER_0_1006_265
*1231 FILLER_0_1006_27
*1232 FILLER_0_1006_277
*1233 FILLER_0_1006_289
*1234 FILLER_0_1006_29
*1235 FILLER_0_1006_3
*1236 FILLER_0_1006_301
*1237 FILLER_0_1006_307
*1238 FILLER_0_1006_309
*1239 FILLER_0_1006_321
*1240 FILLER_0_1006_333
*1241 FILLER_0_1006_345
*1242 FILLER_0_1006_357
*1243 FILLER_0_1006_363
*1244 FILLER_0_1006_365
*1245 FILLER_0_1006_377
*1246 FILLER_0_1006_389
*1247 FILLER_0_1006_401
*1248 FILLER_0_1006_41
*1249 FILLER_0_1006_53
*1250 FILLER_0_1006_65
*1251 FILLER_0_1006_77
*1252 FILLER_0_1006_83
*1253 FILLER_0_1006_85
*1254 FILLER_0_1006_97
*1255 FILLER_0_1007_105
*1256 FILLER_0_1007_11
*1257 FILLER_0_1007_111
*1258 FILLER_0_1007_113
*1259 FILLER_0_1007_125
*1260 FILLER_0_1007_137
*1261 FILLER_0_1007_149
*1262 FILLER_0_1007_161
*1263 FILLER_0_1007_167
*1264 FILLER_0_1007_169
*1265 FILLER_0_1007_18
*1266 FILLER_0_1007_181
*1267 FILLER_0_1007_193
*1268 FILLER_0_1007_205
*1269 FILLER_0_1007_217
*1270 FILLER_0_1007_22
*1271 FILLER_0_1007_223
*1272 FILLER_0_1007_225
*1273 FILLER_0_1007_237
*1274 FILLER_0_1007_249
*1275 FILLER_0_1007_261
*1276 FILLER_0_1007_273
*1277 FILLER_0_1007_279
*1278 FILLER_0_1007_281
*1279 FILLER_0_1007_293
*1280 FILLER_0_1007_3
*1281 FILLER_0_1007_305
*1282 FILLER_0_1007_317
*1283 FILLER_0_1007_329
*1284 FILLER_0_1007_335
*1285 FILLER_0_1007_337
*1286 FILLER_0_1007_34
*1287 FILLER_0_1007_349
*1288 FILLER_0_1007_361
*1289 FILLER_0_1007_373
*1290 FILLER_0_1007_385
*1291 FILLER_0_1007_391
*1292 FILLER_0_1007_393
*1293 FILLER_0_1007_405
*1294 FILLER_0_1007_46
*1295 FILLER_0_1007_54
*1296 FILLER_0_1007_57
*1297 FILLER_0_1007_69
*1298 FILLER_0_1007_81
*1299 FILLER_0_1007_93
*1300 FILLER_0_1008_109
*1301 FILLER_0_1008_121
*1302 FILLER_0_1008_133
*1303 FILLER_0_1008_139
*1304 FILLER_0_1008_141
*1305 FILLER_0_1008_15
*1306 FILLER_0_1008_153
*1307 FILLER_0_1008_165
*1308 FILLER_0_1008_177
*1309 FILLER_0_1008_189
*1310 FILLER_0_1008_195
*1311 FILLER_0_1008_197
*1312 FILLER_0_1008_209
*1313 FILLER_0_1008_221
*1314 FILLER_0_1008_233
*1315 FILLER_0_1008_245
*1316 FILLER_0_1008_251
*1317 FILLER_0_1008_253
*1318 FILLER_0_1008_265
*1319 FILLER_0_1008_27
*1320 FILLER_0_1008_277
*1321 FILLER_0_1008_289
*1322 FILLER_0_1008_29
*1323 FILLER_0_1008_3
*1324 FILLER_0_1008_301
*1325 FILLER_0_1008_307
*1326 FILLER_0_1008_309
*1327 FILLER_0_1008_321
*1328 FILLER_0_1008_333
*1329 FILLER_0_1008_345
*1330 FILLER_0_1008_357
*1331 FILLER_0_1008_363
*1332 FILLER_0_1008_365
*1333 FILLER_0_1008_377
*1334 FILLER_0_1008_389
*1335 FILLER_0_1008_401
*1336 FILLER_0_1008_41
*1337 FILLER_0_1008_53
*1338 FILLER_0_1008_65
*1339 FILLER_0_1008_77
*1340 FILLER_0_1008_83
*1341 FILLER_0_1008_85
*1342 FILLER_0_1008_97
*1343 FILLER_0_1009_105
*1344 FILLER_0_1009_111
*1345 FILLER_0_1009_113
*1346 FILLER_0_1009_125
*1347 FILLER_0_1009_137
*1348 FILLER_0_1009_149
*1349 FILLER_0_1009_15
*1350 FILLER_0_1009_161
*1351 FILLER_0_1009_167
*1352 FILLER_0_1009_169
*1353 FILLER_0_1009_181
*1354 FILLER_0_1009_193
*1355 FILLER_0_1009_205
*1356 FILLER_0_1009_217
*1357 FILLER_0_1009_223
*1358 FILLER_0_1009_225
*1359 FILLER_0_1009_237
*1360 FILLER_0_1009_249
*1361 FILLER_0_1009_261
*1362 FILLER_0_1009_27
*1363 FILLER_0_1009_273
*1364 FILLER_0_1009_279
*1365 FILLER_0_1009_281
*1366 FILLER_0_1009_293
*1367 FILLER_0_1009_3
*1368 FILLER_0_1009_305
*1369 FILLER_0_1009_317
*1370 FILLER_0_1009_329
*1371 FILLER_0_1009_335
*1372 FILLER_0_1009_337
*1373 FILLER_0_1009_349
*1374 FILLER_0_1009_361
*1375 FILLER_0_1009_373
*1376 FILLER_0_1009_385
*1377 FILLER_0_1009_39
*1378 FILLER_0_1009_391
*1379 FILLER_0_1009_393
*1380 FILLER_0_1009_405
*1381 FILLER_0_1009_51
*1382 FILLER_0_1009_55
*1383 FILLER_0_1009_57
*1384 FILLER_0_1009_69
*1385 FILLER_0_1009_81
*1386 FILLER_0_1009_93
*1387 FILLER_0_100_109
*1388 FILLER_0_100_121
*1389 FILLER_0_100_133
*1390 FILLER_0_100_139
*1391 FILLER_0_100_141
*1392 FILLER_0_100_15
*1393 FILLER_0_100_153
*1394 FILLER_0_100_165
*1395 FILLER_0_100_177
*1396 FILLER_0_100_189
*1397 FILLER_0_100_195
*1398 FILLER_0_100_197
*1399 FILLER_0_100_209
*1400 FILLER_0_100_221
*1401 FILLER_0_100_233
*1402 FILLER_0_100_245
*1403 FILLER_0_100_251
*1404 FILLER_0_100_253
*1405 FILLER_0_100_265
*1406 FILLER_0_100_27
*1407 FILLER_0_100_277
*1408 FILLER_0_100_289
*1409 FILLER_0_100_29
*1410 FILLER_0_100_3
*1411 FILLER_0_100_301
*1412 FILLER_0_100_307
*1413 FILLER_0_100_309
*1414 FILLER_0_100_321
*1415 FILLER_0_100_333
*1416 FILLER_0_100_345
*1417 FILLER_0_100_357
*1418 FILLER_0_100_363
*1419 FILLER_0_100_365
*1420 FILLER_0_100_377
*1421 FILLER_0_100_389
*1422 FILLER_0_100_401
*1423 FILLER_0_100_41
*1424 FILLER_0_100_53
*1425 FILLER_0_100_65
*1426 FILLER_0_100_77
*1427 FILLER_0_100_83
*1428 FILLER_0_100_85
*1429 FILLER_0_100_97
*1430 FILLER_0_1010_109
*1431 FILLER_0_1010_121
*1432 FILLER_0_1010_133
*1433 FILLER_0_1010_139
*1434 FILLER_0_1010_141
*1435 FILLER_0_1010_15
*1436 FILLER_0_1010_153
*1437 FILLER_0_1010_165
*1438 FILLER_0_1010_177
*1439 FILLER_0_1010_189
*1440 FILLER_0_1010_195
*1441 FILLER_0_1010_197
*1442 FILLER_0_1010_209
*1443 FILLER_0_1010_221
*1444 FILLER_0_1010_233
*1445 FILLER_0_1010_245
*1446 FILLER_0_1010_251
*1447 FILLER_0_1010_253
*1448 FILLER_0_1010_265
*1449 FILLER_0_1010_27
*1450 FILLER_0_1010_277
*1451 FILLER_0_1010_289
*1452 FILLER_0_1010_29
*1453 FILLER_0_1010_3
*1454 FILLER_0_1010_301
*1455 FILLER_0_1010_307
*1456 FILLER_0_1010_309
*1457 FILLER_0_1010_321
*1458 FILLER_0_1010_333
*1459 FILLER_0_1010_345
*1460 FILLER_0_1010_357
*1461 FILLER_0_1010_363
*1462 FILLER_0_1010_365
*1463 FILLER_0_1010_377
*1464 FILLER_0_1010_389
*1465 FILLER_0_1010_401
*1466 FILLER_0_1010_41
*1467 FILLER_0_1010_53
*1468 FILLER_0_1010_65
*1469 FILLER_0_1010_77
*1470 FILLER_0_1010_83
*1471 FILLER_0_1010_85
*1472 FILLER_0_1010_97
*1473 FILLER_0_1011_105
*1474 FILLER_0_1011_111
*1475 FILLER_0_1011_113
*1476 FILLER_0_1011_125
*1477 FILLER_0_1011_137
*1478 FILLER_0_1011_149
*1479 FILLER_0_1011_15
*1480 FILLER_0_1011_161
*1481 FILLER_0_1011_167
*1482 FILLER_0_1011_169
*1483 FILLER_0_1011_181
*1484 FILLER_0_1011_193
*1485 FILLER_0_1011_205
*1486 FILLER_0_1011_217
*1487 FILLER_0_1011_223
*1488 FILLER_0_1011_225
*1489 FILLER_0_1011_237
*1490 FILLER_0_1011_249
*1491 FILLER_0_1011_261
*1492 FILLER_0_1011_27
*1493 FILLER_0_1011_273
*1494 FILLER_0_1011_279
*1495 FILLER_0_1011_281
*1496 FILLER_0_1011_293
*1497 FILLER_0_1011_3
*1498 FILLER_0_1011_305
*1499 FILLER_0_1011_317
*1500 FILLER_0_1011_329
*1501 FILLER_0_1011_335
*1502 FILLER_0_1011_337
*1503 FILLER_0_1011_349
*1504 FILLER_0_1011_361
*1505 FILLER_0_1011_373
*1506 FILLER_0_1011_385
*1507 FILLER_0_1011_39
*1508 FILLER_0_1011_391
*1509 FILLER_0_1011_393
*1510 FILLER_0_1011_405
*1511 FILLER_0_1011_51
*1512 FILLER_0_1011_55
*1513 FILLER_0_1011_57
*1514 FILLER_0_1011_69
*1515 FILLER_0_1011_81
*1516 FILLER_0_1011_93
*1517 FILLER_0_1012_109
*1518 FILLER_0_1012_121
*1519 FILLER_0_1012_133
*1520 FILLER_0_1012_139
*1521 FILLER_0_1012_141
*1522 FILLER_0_1012_15
*1523 FILLER_0_1012_153
*1524 FILLER_0_1012_165
*1525 FILLER_0_1012_177
*1526 FILLER_0_1012_189
*1527 FILLER_0_1012_195
*1528 FILLER_0_1012_197
*1529 FILLER_0_1012_209
*1530 FILLER_0_1012_221
*1531 FILLER_0_1012_233
*1532 FILLER_0_1012_245
*1533 FILLER_0_1012_251
*1534 FILLER_0_1012_253
*1535 FILLER_0_1012_265
*1536 FILLER_0_1012_27
*1537 FILLER_0_1012_277
*1538 FILLER_0_1012_289
*1539 FILLER_0_1012_29
*1540 FILLER_0_1012_3
*1541 FILLER_0_1012_301
*1542 FILLER_0_1012_307
*1543 FILLER_0_1012_309
*1544 FILLER_0_1012_321
*1545 FILLER_0_1012_333
*1546 FILLER_0_1012_345
*1547 FILLER_0_1012_357
*1548 FILLER_0_1012_363
*1549 FILLER_0_1012_365
*1550 FILLER_0_1012_377
*1551 FILLER_0_1012_389
*1552 FILLER_0_1012_401
*1553 FILLER_0_1012_41
*1554 FILLER_0_1012_53
*1555 FILLER_0_1012_65
*1556 FILLER_0_1012_77
*1557 FILLER_0_1012_83
*1558 FILLER_0_1012_85
*1559 FILLER_0_1012_97
*1560 FILLER_0_1013_105
*1561 FILLER_0_1013_111
*1562 FILLER_0_1013_113
*1563 FILLER_0_1013_125
*1564 FILLER_0_1013_137
*1565 FILLER_0_1013_149
*1566 FILLER_0_1013_15
*1567 FILLER_0_1013_161
*1568 FILLER_0_1013_167
*1569 FILLER_0_1013_169
*1570 FILLER_0_1013_181
*1571 FILLER_0_1013_193
*1572 FILLER_0_1013_205
*1573 FILLER_0_1013_217
*1574 FILLER_0_1013_223
*1575 FILLER_0_1013_225
*1576 FILLER_0_1013_237
*1577 FILLER_0_1013_249
*1578 FILLER_0_1013_261
*1579 FILLER_0_1013_27
*1580 FILLER_0_1013_273
*1581 FILLER_0_1013_279